    8
Cluster output
 Cu    1.69574    0.00000    0.00000
 Cu   -1.69574    0.00000    0.00000
 Cl    0.00000    1.55386    0.00000
 Cl    0.00000   -1.55386    0.00000
 Cl    3.25142    1.15919    1.15919
 Cl    3.25142   -1.15919   -1.15919
 Cl   -3.25142    1.15919    1.15919
 Cl   -3.25142   -1.15919   -1.15919

